&NAMVER
   CBOX%ACTIVE=F,
   DATA_SOURCE='vfld',
   EDATE=20190729,
   ESTIMATE_QC_LIMIT=T,
   EXPNAME='iobs_0km_ref','iobs_0km_sigmao80','iobs_0km_sigmao120',
   FCINT=03,
   FCLEN=00,01,02,03,04,05,06,07,08,09,10,11,12,13,14,15,16,17,18,19,20,21,22,23,24,25,26,27,28,29,30,31,32,33,34,35,36,
   FEXPNAME='iobs_0km_ref','iobs_0km_sigmao80','iobs_0km_sigmao120',
   LDIFF=T,
   LFCVER=T,
   LPLOT_FREQ=F,
   LPLOT_SCAT=F,
   LPLOT_SEASONAL=F,
   LPLOT_STAT=F,
   LPLOT_VERT=F,
   LPOLY=F,
   LPREP_XML=F,
   LQUALITY_CONTROL=T,
   LRECONSTRUCT_PE=T,
   LSIGN_TEST=F,
   LSIGN_TEST_JOINT=F,
   LSTAT_GEN=F,
   LTIMESERIE_STAT=F,
   LVERIFY=F,
   MAXSTN=20000,
   MAX_CB=-1.,
   MODPATH='/nobackup/smhid19/users/sm_ridal/harp/vfld/iobs_0km_ref/','/nobackup/smhid19/users/sm_ridal/harp/vfld/iobs_0km_sigmao80/','/nobackup/smhid19/users/sm_ridal/harp/vfld/iobs_0km_sigmao120/',
   NEXP=3,
   OBINT=01,
   OBSPATH='/nobackup/smhid19/users/sm_ridal/harp/vfld/../vobs/iobs_0km_ref/',
   OUTPUT_MODE=2,
   OUTPUT_TYPE=2,
   PERIOD_FREQ=,
   PERIOD_TYPE=1,
   PLOT_BIAS_MAP=F,
   PLOT_MABE_MAP=F,
   PLOT_PREFIX='V','v','ps','PS','L','l','m','M','f','s','x','Y','sign','jsign',
   PLOT_RMSE_MAP=F,
   PLOT_STDV_MAP=F,
   PRINT_READ=0,
   QC_LIM_SCALE(1)=5,
   QC_LIM_SCALE(2)=5,
   QC_LIM_SCALE(3)=5,
   QC_LIM_SCALE(4)=5,
   QC_LIM_SCALE(5)=5,
   QC_LIM_SCALE(6)=5,
   QC_LIM_SCALE(7)=5,
   QC_LIM_SCALE(8)=5,
   SDATE=20190701,
   SETPROP(1)%ID='PS',
   SETPROP(1)%TEXT='Mslp',
   SETPROP(2)%ID='FF',
   SETPROP(2)%TEXT='U10m',
   SETPROP(3)%ID='FX',
   SETPROP(3)%TEXT='Max U10m',
   SETPROP(4)%ID='GG',
   SETPROP(4)%TEXT='Wind Gust',
   SETPROP(5)%ACC=1,
   SETPROP(5)%ACCTYPE=3,
   SETPROP(5)%ID='GX',
   SETPROP(5)%TEXT='Max Wind Gust',
   SETPROP(6)%ID='DD',
   SETPROP(6)%TEXT='Wind direction',
   SETPROP(7)%ID='TT',
   SETPROP(7)%TEXT='T2m',
   SETPROP(8)%ID='TTHA',
   SETPROP(8)%TEXT='T2m, height corr.',
   SETPROP(8)%UNIT='deg C',
   SHOW_OBS=F,
   STNLIST=0,
   STNLIST_PLOT=-1,
   USE_ANALYSIS=.FALSE.,.FALSE.,.FALSE.,.FALSE.,.FALSE.,
   varlist='PS','FF','FX','GG','GX','DD','TT','TTHA',
 /
&NAMVER
   CBOX%ACTIVE=F,
   INI_HOURS=24*-1,
   LDIFF=T,
   LFCVER=T,
   LPLOT_FREQ=F,
   LPLOT_SCAT=F,
   LPLOT_SEASONAL=F,
   LPLOT_STAT=F,
   LPLOT_VERT=F,
   LPOLY=F,
   LPREP_XML=F,
   LSIGN_TEST=F,
   LSIGN_TEST_JOINT=F,
   LSTAT_GEN=F,
   LTIMESERIE_STAT=T,
   LVERIFY=T,
   PLOT_BIAS_MAP=F,
   PLOT_MABE_MAP=F,
   PLOT_RMSE_MAP=F,
   PLOT_STDV_MAP=F,
   SHOW_BIAS=T,
   SHOW_MABE=F,
   SHOW_OBS=F,
   SHOW_RMSE=F,
   SHOW_STDV=T,
   STNLIST=0,19999*0,
   TAG='ALL',
   TIMESERIE_WIND(1)=6,
   TIMESERIE_WIND(2)=6,
   TIMESERIE_WIND(3)=6,
   TIMESERIE_WIND(4)=6,
   TIMESERIE_WIND(5)=6,
   TIMESERIE_WIND(6)=6,
   TIMESERIE_WIND(7)=6,
   TIMESERIE_WIND(8)=6,
   USE_FCLEN=03,
 /
&NAMVER
   CBOX%ACTIVE=F,
   INI_HOURS=24*-1,
   LDIFF=T,
   LFCVER=F,
   LPLOT_FREQ=F,
   LPLOT_SCAT=F,
   LPLOT_SEASONAL=F,
   LPLOT_STAT=T,
   LPLOT_VERT=F,
   LPOLY=F,
   LPREP_XML=F,
   LSIGN_TEST=F,
   LSIGN_TEST_JOINT=F,
   LSTAT_GEN=T,
   LTIMESERIE_STAT=F,
   LVERIFY=T,
   NTIMVER=24,
   PLOT_BIAS_MAP=F,
   PLOT_MABE_MAP=F,
   PLOT_RMSE_MAP=F,
   PLOT_STDV_MAP=F,
   SHOW_OBS=T,
   SHOW_VAR=F,
   STATNAME='TABLE_HH_00000000_ALL.html',
   STNLIST=0,19999*0,
   TAG='ALL',
   USE_FCLEN=00,01,02,03,04,05,06,07,08,09,10,11,12,13,14,15,16,17,18,19,20,21,22,23,24,25,26,27,28,29,30,31,32,33,34,35,36,
 /
&NAMVER
   CBOX%ACTIVE=F,
   INI_HOURS=24*-1,
   LDIFF=T,
   LFCVER=F,
   LPLOT_FREQ=F,
   LPLOT_SCAT=F,
   LPLOT_SEASONAL=F,
   LPLOT_STAT=F,
   LPLOT_VERT=F,
   LPOLY=F,
   LPREP_XML=F,
   LSIGN_TEST=F,
   LSIGN_TEST_JOINT=F,
   LSTAT_GEN=T,
   LTIMESERIE_STAT=F,
   LVERIFY=T,
   MAP_BIAS_INTERVAL(1:7,1)=-1.5,-1.0,-0.5,0.,0.5,1.0,1.5,
   MAP_BIAS_INTERVAL(1:7,2)=-10.,-5.,-2.5,0.,2.5,5.,10.,
   MAP_BIAS_INTERVAL(1:7,3)=-10.,-5.,-2.5,0.,2.5,5.,10.,
   MAP_BIAS_INTERVAL(1:7,4)=-10.,-5.,-2.5,0.,2.5,5.,10.,
   MAP_BIAS_INTERVAL(1:7,5)=-10.,-5.,-2.5,0.,2.5,5.,10.,
   MAP_BIAS_INTERVAL(1:7,6)=-90.,-60.,-30.,0.,30.,60.,90.,
   MAP_BIAS_INTERVAL(1:7,7)=-8.,-2.,-0.5,0.,0.5,2.,8.,
   MAP_BIAS_INTERVAL(1:7,8)=-8.,-2.,-0.5,0.,0.5,2.,8.,
   NTIMVER=24,
   PLOT_BIAS_MAP=T,
   PLOT_MABE_MAP=F,
   PLOT_RMSE_MAP=T,
   PLOT_STDV_MAP=F,
   SHOW_OBS=F,
   SHOW_TIMES=00,06,12,18,
   STNLIST=0,19999*0,
   TAG='ALL',
   USE_FCLEN=03,
 /
&NAMVER
   CBOX%ACTIVE=F,
   CONT_CLASS(1)=7,
   CONT_CLASS(2)=12,
   CONT_CLASS(3)=12,
   CONT_IND(1)=2,
   CONT_IND(2)=7,
   CONT_IND(3)=8,
   CONT_LIM(1:12,2)=-30.,-20.,-15.,-10.,-5.,0.,5.,10.,15.,20.,25.,30.,
   CONT_LIM(1:12,3)=-30.,-20.,-15.,-10.,-5.,0.,5.,10.,15.,20.,25.,30.,
   CONT_LIM(1:7,1)=1.5,3.3,5.5,8.0,10.8,13.9,24.5,
   CONT_PARAM=3,
   INI_HOURS=24*-1,
   LDIFF=T,
   LFCVER=T,
   LPLOT_FREQ=F,
   LPLOT_SCAT=T,
   LPLOT_SEASONAL=F,
   LPLOT_STAT=F,
   LPLOT_VERT=F,
   LPOLY=F,
   LPREP_XML=T,
   LSCAT_YAVE=F,
   LSIGN_TEST=F,
   LSIGN_TEST_JOINT=F,
   LSTAT_GEN=F,
   LTIMESERIE_STAT=F,
   LVERIFY=T,
   PLOT_BIAS_MAP=F,
   PLOT_MABE_MAP=F,
   PLOT_RMSE_MAP=F,
   PLOT_STDV_MAP=F,
   PRE_FCLA(:,2)=1.5,3.3,5.5,8.0,10.8,13.9,24.5,
   PRE_FCLA(:,6)=10.,30.,50.,70.,90.,110.,130.,150.,170.,190.,210.,230.,250.,270.,290.,310.,330.,350.,
   PRE_FCLA(:,7)=-30.,-20.,-15.,-10.,-5.,0.,5.,10.,15.,20.,25.,30.,
   PRE_FCLA(:,8)=-30.,-20.,-15.,-10.,-5.,0.,5.,10.,15.,20.,25.,30.,
   SHOW_OBS=F,
   STNLIST=0,19999*0,
   TAG='ALL',
   USE_FCLEN=00,01,02,03,04,05,06,07,08,09,10,11,12,13,14,15,16,17,18,19,20,21,22,23,24,25,26,27,28,29,30,31,32,33,34,35,36,
 /
&NAMVER
   CBOX%ACTIVE=F,
   CONFINT=90.,
   INI_HOURS=24*-1,
   LDIFF=T,
   LFCVER=T,
   LPLOT_FREQ=F,
   LPLOT_SCAT=F,
   LPLOT_SEASONAL=F,
   LPLOT_STAT=T,
   LPLOT_VERT=F,
   LPOLY=F,
   LPREP_XML=F,
   LSIGN_TEST=T,
   LSIGN_TEST_JOINT=F,
   LSTAT_GEN=T,
   LTIMESERIE_STAT=F,
   LVERIFY=T,
   PLOT_BIAS_MAP=F,
   PLOT_MABE_MAP=F,
   PLOT_RMSE_MAP=F,
   PLOT_STDV_MAP=F,
   SHOW_BIAS=T,
   SHOW_MABE=F,
   SHOW_OBS=F,
   SHOW_RMSE=F,
   SHOW_STDV=T,
   SHOW_VAR=T,
   SIGN_TIME_DIFF=-1,
   STATNAME='TABLE_LL_00000000_ALL.html',
   STNLIST=0,19999*0,
   TAG='ALL',
   USE_FCLEN=00,01,02,03,04,05,06,07,08,09,10,11,12,13,14,15,16,17,18,19,20,21,22,23,24,25,26,27,28,29,30,31,32,33,34,35,36,
 /
&NAMVER
   CBOX%ACTIVE=F,
   INI_HOURS=24*-1,
   LDIFF=T,
   LFCVER=T,
   LPLOT_FREQ=F,
   LPLOT_SCAT=F,
   LPLOT_SEASONAL=F,
   LPLOT_STAT=F,
   LPLOT_VERT=F,
   LPOLY=F,
   LPREP_XML=F,
   LSIGN_TEST=F,
   LSIGN_TEST_JOINT=F,
   LSTAT_GEN=F,
   LTIMESERIE_STAT=T,
   LVERIFY=T,
   PLOT_BIAS_MAP=F,
   PLOT_MABE_MAP=F,
   PLOT_RMSE_MAP=F,
   PLOT_STDV_MAP=F,
   SHOW_BIAS=T,
   SHOW_MABE=F,
   SHOW_OBS=F,
   SHOW_RMSE=F,
   SHOW_STDV=T,
   STNLIST=06030,06041,06043,06049,06052,
                06058,06060,06070,06072,06073,
		06074,06079,06080,06081,06096,
		06102,06104,06110,06116,06118,06119,
		06120,06123,06126,06135,06138,06141,
		06149,06151,06154,06156,06165,06168,
		06170,06180,06181,06190,06193,19962*0,
   STNLIST_PLOT=-1,
   TAG='Denmark',
   TIMESERIE_WIND(1)=6,
   TIMESERIE_WIND(2)=6,
   TIMESERIE_WIND(3)=6,
   TIMESERIE_WIND(4)=6,
   TIMESERIE_WIND(5)=6,
   TIMESERIE_WIND(6)=6,
   TIMESERIE_WIND(7)=6,
   TIMESERIE_WIND(8)=6,
   USE_FCLEN=03,
 /
&NAMVER
   CBOX%ACTIVE=F,
   INI_HOURS=24*-1,
   LDIFF=T,
   LFCVER=F,
   LPLOT_FREQ=F,
   LPLOT_SCAT=F,
   LPLOT_SEASONAL=F,
   LPLOT_STAT=T,
   LPLOT_VERT=F,
   LPOLY=F,
   LPREP_XML=F,
   LSIGN_TEST=F,
   LSIGN_TEST_JOINT=F,
   LSTAT_GEN=T,
   LTIMESERIE_STAT=F,
   LVERIFY=T,
   NTIMVER=24,
   PLOT_BIAS_MAP=F,
   PLOT_MABE_MAP=F,
   PLOT_RMSE_MAP=F,
   PLOT_STDV_MAP=F,
   SHOW_OBS=T,
   SHOW_VAR=F,
   STATNAME='TABLE_HH_00000000_Denmark.html',
   STNLIST=06030,06041,06043,06049,06052,
                06058,06060,06070,06072,06073,
		06074,06079,06080,06081,06096,
		06102,06104,06110,06116,06118,06119,
		06120,06123,06126,06135,06138,06141,
		06149,06151,06154,06156,06165,06168,
		06170,06180,06181,06190,06193,19962*0,
   STNLIST_PLOT=-1,
   TAG='Denmark',
   USE_FCLEN=00,01,02,03,04,05,06,07,08,09,10,11,12,13,14,15,16,17,18,19,20,21,22,23,24,25,26,27,28,29,30,31,32,33,34,35,36,
 /
&NAMVER
   CBOX%ACTIVE=F,
   INI_HOURS=24*-1,
   LDIFF=T,
   LFCVER=F,
   LPLOT_FREQ=F,
   LPLOT_SCAT=F,
   LPLOT_SEASONAL=F,
   LPLOT_STAT=F,
   LPLOT_VERT=F,
   LPOLY=F,
   LPREP_XML=F,
   LSIGN_TEST=F,
   LSIGN_TEST_JOINT=F,
   LSTAT_GEN=T,
   LTIMESERIE_STAT=F,
   LVERIFY=T,
   MAP_BIAS_INTERVAL(1:7,1)=-1.5,-1.0,-0.5,0.,0.5,1.0,1.5,
   MAP_BIAS_INTERVAL(1:7,2)=-10.,-5.,-2.5,0.,2.5,5.,10.,
   MAP_BIAS_INTERVAL(1:7,3)=-10.,-5.,-2.5,0.,2.5,5.,10.,
   MAP_BIAS_INTERVAL(1:7,4)=-10.,-5.,-2.5,0.,2.5,5.,10.,
   MAP_BIAS_INTERVAL(1:7,5)=-10.,-5.,-2.5,0.,2.5,5.,10.,
   MAP_BIAS_INTERVAL(1:7,6)=-90.,-60.,-30.,0.,30.,60.,90.,
   MAP_BIAS_INTERVAL(1:7,7)=-8.,-2.,-0.5,0.,0.5,2.,8.,
   MAP_BIAS_INTERVAL(1:7,8)=-8.,-2.,-0.5,0.,0.5,2.,8.,
   NTIMVER=24,
   PLOT_BIAS_MAP=T,
   PLOT_MABE_MAP=F,
   PLOT_RMSE_MAP=T,
   PLOT_STDV_MAP=F,
   SHOW_OBS=F,
   SHOW_TIMES=00,06,12,18,
   STNLIST=06030,06041,06043,06049,06052,
                06058,06060,06070,06072,06073,
		06074,06079,06080,06081,06096,
		06102,06104,06110,06116,06118,06119,
		06120,06123,06126,06135,06138,06141,
		06149,06151,06154,06156,06165,06168,
		06170,06180,06181,06190,06193,19962*0,
   STNLIST_PLOT=-1,
   TAG='Denmark',
   USE_FCLEN=03,
 /
&NAMVER
   CBOX%ACTIVE=F,
   CONT_CLASS(1)=7,
   CONT_CLASS(2)=12,
   CONT_CLASS(3)=12,
   CONT_IND(1)=2,
   CONT_IND(2)=7,
   CONT_IND(3)=8,
   CONT_LIM(1:12,2)=-30.,-20.,-15.,-10.,-5.,0.,5.,10.,15.,20.,25.,30.,
   CONT_LIM(1:12,3)=-30.,-20.,-15.,-10.,-5.,0.,5.,10.,15.,20.,25.,30.,
   CONT_LIM(1:7,1)=1.5,3.3,5.5,8.0,10.8,13.9,24.5,
   CONT_PARAM=3,
   INI_HOURS=24*-1,
   LDIFF=T,
   LFCVER=T,
   LPLOT_FREQ=F,
   LPLOT_SCAT=T,
   LPLOT_SEASONAL=F,
   LPLOT_STAT=F,
   LPLOT_VERT=F,
   LPOLY=F,
   LPREP_XML=F,
   LSCAT_YAVE=F,
   LSIGN_TEST=F,
   LSIGN_TEST_JOINT=F,
   LSTAT_GEN=F,
   LTIMESERIE_STAT=F,
   LVERIFY=T,
   PLOT_BIAS_MAP=F,
   PLOT_MABE_MAP=F,
   PLOT_RMSE_MAP=F,
   PLOT_STDV_MAP=F,
   PRE_FCLA(:,2)=1.5,3.3,5.5,8.0,10.8,13.9,24.5,
   PRE_FCLA(:,6)=10.,30.,50.,70.,90.,110.,130.,150.,170.,190.,210.,230.,250.,270.,290.,310.,330.,350.,
   PRE_FCLA(:,7)=-30.,-20.,-15.,-10.,-5.,0.,5.,10.,15.,20.,25.,30.,
   PRE_FCLA(:,8)=-30.,-20.,-15.,-10.,-5.,0.,5.,10.,15.,20.,25.,30.,
   SHOW_OBS=F,
   STNLIST=06030,06041,06043,06049,06052,
                06058,06060,06070,06072,06073,
		06074,06079,06080,06081,06096,
		06102,06104,06110,06116,06118,06119,
		06120,06123,06126,06135,06138,06141,
		06149,06151,06154,06156,06165,06168,
		06170,06180,06181,06190,06193,19962*0,
   STNLIST_PLOT=-1,
   TAG='Denmark',
   USE_FCLEN=00,01,02,03,04,05,06,07,08,09,10,11,12,13,14,15,16,17,18,19,20,21,22,23,24,25,26,27,28,29,30,31,32,33,34,35,36,
 /
&NAMVER
   CBOX%ACTIVE=F,
   CONFINT=90.,
   INI_HOURS=24*-1,
   LDIFF=T,
   LFCVER=T,
   LPLOT_FREQ=F,
   LPLOT_SCAT=F,
   LPLOT_SEASONAL=F,
   LPLOT_STAT=T,
   LPLOT_VERT=F,
   LPOLY=F,
   LPREP_XML=F,
   LSIGN_TEST=T,
   LSIGN_TEST_JOINT=F,
   LSTAT_GEN=T,
   LTIMESERIE_STAT=F,
   LVERIFY=T,
   PLOT_BIAS_MAP=F,
   PLOT_MABE_MAP=F,
   PLOT_RMSE_MAP=F,
   PLOT_STDV_MAP=F,
   SHOW_BIAS=T,
   SHOW_MABE=F,
   SHOW_OBS=F,
   SHOW_RMSE=F,
   SHOW_STDV=T,
   SHOW_VAR=T,
   SIGN_TIME_DIFF=-1,
   STATNAME='TABLE_LL_00000000_Denmark.html',
   STNLIST=06030,06041,06043,06049,06052,
                06058,06060,06070,06072,06073,
		06074,06079,06080,06081,06096,
		06102,06104,06110,06116,06118,06119,
		06120,06123,06126,06135,06138,06141,
		06149,06151,06154,06156,06165,06168,
		06170,06180,06181,06190,06193,19962*0,
   STNLIST_PLOT=-1,
   TAG='Denmark',
   USE_FCLEN=00,01,02,03,04,05,06,07,08,09,10,11,12,13,14,15,16,17,18,19,20,21,22,23,24,25,26,27,28,29,30,31,32,33,34,35,36,
 /
&NAMVER
   CBOX%ACTIVE=F,
   INI_HOURS=24*-1,
   LDIFF=T,
   LFCVER=T,
   LPLOT_FREQ=F,
   LPLOT_SCAT=F,
   LPLOT_SEASONAL=F,
   LPLOT_STAT=F,
   LPLOT_VERT=F,
   LPOLY=F,
   LPREP_XML=F,
   LSIGN_TEST=F,
   LSIGN_TEST_JOINT=F,
   LSTAT_GEN=F,
   LTIMESERIE_STAT=T,
   LVERIFY=T,
   PLOT_BIAS_MAP=F,
   PLOT_MABE_MAP=F,
   PLOT_RMSE_MAP=F,
   PLOT_STDV_MAP=F,
   SHOW_BIAS=T,
   SHOW_MABE=F,
   SHOW_OBS=F,
   SHOW_RMSE=F,
   SHOW_STDV=T,
   STNLIST=2013,2019,2020,2024,2028,2029,2031,2036,2038,2044,
                2045,2049,2054,2055,2064,2071,2072,2080,2081,2091,
                2095,2096,2102,2103,2104,2110,2119,2120,2121,2123,
                2124,2126,2128,2130,2135,2141,2146,2147,2149,2151,
                2154,2159,2161,2170,2171,2173,2174,2176,2181,2183,
                2184,2185,2186,2188,2191,2196,2197,2199,2206,2207,
                2209,2210,2216,2217,2219,2221,2222,2226,2229,2230,
                2231,2233,2236,2242,2243,2244,2245,2247,2254,2256,
                2260,2261,2263,2265,2267,2269,2271,2282,2283,2284,
                2286,2287,2288,2292,2293,2297,2302,2303,2307,2308,
                2311,2317,2319,2321,2324,2325,2327,2329,2331,2337,
                2338,2343,2347,2349,2354,2355,2365,2366,2368,2378,
                2382,2403,2407,2408,2410,2411,2413,2417,2418,2419,
                2423,2426,2429,2431,2432,2435,2440,2441,2443,2449,
                2450,2452,2453,2456,2458,2460,2462,2464,2468,2469,
                2472,2476,2481,2482,2483,2484,2485,2486,2487,2488,
                2489,2490,2492,2493,2496,2498,2499,2500,2501,2503,
                2505,2507,2512,2513,2515,2516,2517,2518,2520,2521,
                2526,2527,2531,2536,2539,2540,2542,2544,2545,2546,
                2548,2549,2550,2552,2553,2554,2556,2557,2558,2559,
                2561,2562,2563,2565,2566,2567,2573,2574,2575,2583,
                2584,2587,2589,2590,2591,2595,2598,2602,2603,2605,
                2607,2609,2611,2615,2616,2618,2620,2622,2623,2625,
                2628,2629,2632,2633,2635,2636,2643,2644,2648,2652,
                2661,2664,2665,2667,2670,2679,2680,19753*0,
   STNLIST_PLOT=-1,
   TAG='Sweden',
   TIMESERIE_WIND(1)=6,
   TIMESERIE_WIND(2)=6,
   TIMESERIE_WIND(3)=6,
   TIMESERIE_WIND(4)=6,
   TIMESERIE_WIND(5)=6,
   TIMESERIE_WIND(6)=6,
   TIMESERIE_WIND(7)=6,
   TIMESERIE_WIND(8)=6,
   USE_FCLEN=03,
 /
&NAMVER
   CBOX%ACTIVE=F,
   INI_HOURS=24*-1,
   LDIFF=T,
   LFCVER=F,
   LPLOT_FREQ=F,
   LPLOT_SCAT=F,
   LPLOT_SEASONAL=F,
   LPLOT_STAT=T,
   LPLOT_VERT=F,
   LPOLY=F,
   LPREP_XML=F,
   LSIGN_TEST=F,
   LSIGN_TEST_JOINT=F,
   LSTAT_GEN=T,
   LTIMESERIE_STAT=F,
   LVERIFY=T,
   NTIMVER=24,
   PLOT_BIAS_MAP=F,
   PLOT_MABE_MAP=F,
   PLOT_RMSE_MAP=F,
   PLOT_STDV_MAP=F,
   SHOW_OBS=T,
   SHOW_VAR=F,
   STATNAME='TABLE_HH_00000000_Sweden.html',
   STNLIST=2013,2019,2020,2024,2028,2029,2031,2036,2038,2044,
                2045,2049,2054,2055,2064,2071,2072,2080,2081,2091,
                2095,2096,2102,2103,2104,2110,2119,2120,2121,2123,
                2124,2126,2128,2130,2135,2141,2146,2147,2149,2151,
                2154,2159,2161,2170,2171,2173,2174,2176,2181,2183,
                2184,2185,2186,2188,2191,2196,2197,2199,2206,2207,
                2209,2210,2216,2217,2219,2221,2222,2226,2229,2230,
                2231,2233,2236,2242,2243,2244,2245,2247,2254,2256,
                2260,2261,2263,2265,2267,2269,2271,2282,2283,2284,
                2286,2287,2288,2292,2293,2297,2302,2303,2307,2308,
                2311,2317,2319,2321,2324,2325,2327,2329,2331,2337,
                2338,2343,2347,2349,2354,2355,2365,2366,2368,2378,
                2382,2403,2407,2408,2410,2411,2413,2417,2418,2419,
                2423,2426,2429,2431,2432,2435,2440,2441,2443,2449,
                2450,2452,2453,2456,2458,2460,2462,2464,2468,2469,
                2472,2476,2481,2482,2483,2484,2485,2486,2487,2488,
                2489,2490,2492,2493,2496,2498,2499,2500,2501,2503,
                2505,2507,2512,2513,2515,2516,2517,2518,2520,2521,
                2526,2527,2531,2536,2539,2540,2542,2544,2545,2546,
                2548,2549,2550,2552,2553,2554,2556,2557,2558,2559,
                2561,2562,2563,2565,2566,2567,2573,2574,2575,2583,
                2584,2587,2589,2590,2591,2595,2598,2602,2603,2605,
                2607,2609,2611,2615,2616,2618,2620,2622,2623,2625,
                2628,2629,2632,2633,2635,2636,2643,2644,2648,2652,
                2661,2664,2665,2667,2670,2679,2680,19753*0,
   STNLIST_PLOT=-1,
   TAG='Sweden',
   USE_FCLEN=00,01,02,03,04,05,06,07,08,09,10,11,12,13,14,15,16,17,18,19,20,21,22,23,24,25,26,27,28,29,30,31,32,33,34,35,36,
 /
&NAMVER
   CBOX%ACTIVE=F,
   INI_HOURS=24*-1,
   LDIFF=T,
   LFCVER=F,
   LPLOT_FREQ=F,
   LPLOT_SCAT=F,
   LPLOT_SEASONAL=F,
   LPLOT_STAT=F,
   LPLOT_VERT=F,
   LPOLY=F,
   LPREP_XML=F,
   LSIGN_TEST=F,
   LSIGN_TEST_JOINT=F,
   LSTAT_GEN=T,
   LTIMESERIE_STAT=F,
   LVERIFY=T,
   MAP_BIAS_INTERVAL(1:7,1)=-1.5,-1.0,-0.5,0.,0.5,1.0,1.5,
   MAP_BIAS_INTERVAL(1:7,2)=-10.,-5.,-2.5,0.,2.5,5.,10.,
   MAP_BIAS_INTERVAL(1:7,3)=-10.,-5.,-2.5,0.,2.5,5.,10.,
   MAP_BIAS_INTERVAL(1:7,4)=-10.,-5.,-2.5,0.,2.5,5.,10.,
   MAP_BIAS_INTERVAL(1:7,5)=-10.,-5.,-2.5,0.,2.5,5.,10.,
   MAP_BIAS_INTERVAL(1:7,6)=-90.,-60.,-30.,0.,30.,60.,90.,
   MAP_BIAS_INTERVAL(1:7,7)=-8.,-2.,-0.5,0.,0.5,2.,8.,
   MAP_BIAS_INTERVAL(1:7,8)=-8.,-2.,-0.5,0.,0.5,2.,8.,
   NTIMVER=24,
   PLOT_BIAS_MAP=T,
   PLOT_MABE_MAP=F,
   PLOT_RMSE_MAP=T,
   PLOT_STDV_MAP=F,
   SHOW_OBS=F,
   SHOW_TIMES=00,06,12,18,
   STNLIST=2013,2019,2020,2024,2028,2029,2031,2036,2038,2044,
                2045,2049,2054,2055,2064,2071,2072,2080,2081,2091,
                2095,2096,2102,2103,2104,2110,2119,2120,2121,2123,
                2124,2126,2128,2130,2135,2141,2146,2147,2149,2151,
                2154,2159,2161,2170,2171,2173,2174,2176,2181,2183,
                2184,2185,2186,2188,2191,2196,2197,2199,2206,2207,
                2209,2210,2216,2217,2219,2221,2222,2226,2229,2230,
                2231,2233,2236,2242,2243,2244,2245,2247,2254,2256,
                2260,2261,2263,2265,2267,2269,2271,2282,2283,2284,
                2286,2287,2288,2292,2293,2297,2302,2303,2307,2308,
                2311,2317,2319,2321,2324,2325,2327,2329,2331,2337,
                2338,2343,2347,2349,2354,2355,2365,2366,2368,2378,
                2382,2403,2407,2408,2410,2411,2413,2417,2418,2419,
                2423,2426,2429,2431,2432,2435,2440,2441,2443,2449,
                2450,2452,2453,2456,2458,2460,2462,2464,2468,2469,
                2472,2476,2481,2482,2483,2484,2485,2486,2487,2488,
                2489,2490,2492,2493,2496,2498,2499,2500,2501,2503,
                2505,2507,2512,2513,2515,2516,2517,2518,2520,2521,
                2526,2527,2531,2536,2539,2540,2542,2544,2545,2546,
                2548,2549,2550,2552,2553,2554,2556,2557,2558,2559,
                2561,2562,2563,2565,2566,2567,2573,2574,2575,2583,
                2584,2587,2589,2590,2591,2595,2598,2602,2603,2605,
                2607,2609,2611,2615,2616,2618,2620,2622,2623,2625,
                2628,2629,2632,2633,2635,2636,2643,2644,2648,2652,
                2661,2664,2665,2667,2670,2679,2680,19753*0,
   STNLIST_PLOT=-1,
   TAG='Sweden',
   USE_FCLEN=03,
 /
&NAMVER
   CBOX%ACTIVE=F,
   CONT_CLASS(1)=7,
   CONT_CLASS(2)=12,
   CONT_CLASS(3)=12,
   CONT_IND(1)=2,
   CONT_IND(2)=7,
   CONT_IND(3)=8,
   CONT_LIM(1:12,2)=-30.,-20.,-15.,-10.,-5.,0.,5.,10.,15.,20.,25.,30.,
   CONT_LIM(1:12,3)=-30.,-20.,-15.,-10.,-5.,0.,5.,10.,15.,20.,25.,30.,
   CONT_LIM(1:7,1)=1.5,3.3,5.5,8.0,10.8,13.9,24.5,
   CONT_PARAM=3,
   INI_HOURS=24*-1,
   LDIFF=T,
   LFCVER=T,
   LPLOT_FREQ=F,
   LPLOT_SCAT=T,
   LPLOT_SEASONAL=F,
   LPLOT_STAT=F,
   LPLOT_VERT=F,
   LPOLY=F,
   LPREP_XML=F,
   LSCAT_YAVE=F,
   LSIGN_TEST=F,
   LSIGN_TEST_JOINT=F,
   LSTAT_GEN=F,
   LTIMESERIE_STAT=F,
   LVERIFY=T,
   PLOT_BIAS_MAP=F,
   PLOT_MABE_MAP=F,
   PLOT_RMSE_MAP=F,
   PLOT_STDV_MAP=F,
   PRE_FCLA(:,2)=1.5,3.3,5.5,8.0,10.8,13.9,24.5,
   PRE_FCLA(:,6)=10.,30.,50.,70.,90.,110.,130.,150.,170.,190.,210.,230.,250.,270.,290.,310.,330.,350.,
   PRE_FCLA(:,7)=-30.,-20.,-15.,-10.,-5.,0.,5.,10.,15.,20.,25.,30.,
   PRE_FCLA(:,8)=-30.,-20.,-15.,-10.,-5.,0.,5.,10.,15.,20.,25.,30.,
   SHOW_OBS=F,
   STNLIST=2013,2019,2020,2024,2028,2029,2031,2036,2038,2044,
                2045,2049,2054,2055,2064,2071,2072,2080,2081,2091,
                2095,2096,2102,2103,2104,2110,2119,2120,2121,2123,
                2124,2126,2128,2130,2135,2141,2146,2147,2149,2151,
                2154,2159,2161,2170,2171,2173,2174,2176,2181,2183,
                2184,2185,2186,2188,2191,2196,2197,2199,2206,2207,
                2209,2210,2216,2217,2219,2221,2222,2226,2229,2230,
                2231,2233,2236,2242,2243,2244,2245,2247,2254,2256,
                2260,2261,2263,2265,2267,2269,2271,2282,2283,2284,
                2286,2287,2288,2292,2293,2297,2302,2303,2307,2308,
                2311,2317,2319,2321,2324,2325,2327,2329,2331,2337,
                2338,2343,2347,2349,2354,2355,2365,2366,2368,2378,
                2382,2403,2407,2408,2410,2411,2413,2417,2418,2419,
                2423,2426,2429,2431,2432,2435,2440,2441,2443,2449,
                2450,2452,2453,2456,2458,2460,2462,2464,2468,2469,
                2472,2476,2481,2482,2483,2484,2485,2486,2487,2488,
                2489,2490,2492,2493,2496,2498,2499,2500,2501,2503,
                2505,2507,2512,2513,2515,2516,2517,2518,2520,2521,
                2526,2527,2531,2536,2539,2540,2542,2544,2545,2546,
                2548,2549,2550,2552,2553,2554,2556,2557,2558,2559,
                2561,2562,2563,2565,2566,2567,2573,2574,2575,2583,
                2584,2587,2589,2590,2591,2595,2598,2602,2603,2605,
                2607,2609,2611,2615,2616,2618,2620,2622,2623,2625,
                2628,2629,2632,2633,2635,2636,2643,2644,2648,2652,
                2661,2664,2665,2667,2670,2679,2680,19753*0,
   STNLIST_PLOT=-1,
   TAG='Sweden',
   USE_FCLEN=00,01,02,03,04,05,06,07,08,09,10,11,12,13,14,15,16,17,18,19,20,21,22,23,24,25,26,27,28,29,30,31,32,33,34,35,36,
 /
&NAMVER
   CBOX%ACTIVE=F,
   CONFINT=90.,
   INI_HOURS=24*-1,
   LDIFF=T,
   LFCVER=T,
   LPLOT_FREQ=F,
   LPLOT_SCAT=F,
   LPLOT_SEASONAL=F,
   LPLOT_STAT=T,
   LPLOT_VERT=F,
   LPOLY=F,
   LPREP_XML=F,
   LSIGN_TEST=T,
   LSIGN_TEST_JOINT=F,
   LSTAT_GEN=T,
   LTIMESERIE_STAT=F,
   LVERIFY=T,
   PLOT_BIAS_MAP=F,
   PLOT_MABE_MAP=F,
   PLOT_RMSE_MAP=F,
   PLOT_STDV_MAP=F,
   SHOW_BIAS=T,
   SHOW_MABE=F,
   SHOW_OBS=F,
   SHOW_RMSE=F,
   SHOW_STDV=T,
   SHOW_VAR=T,
   SIGN_TIME_DIFF=-1,
   STATNAME='TABLE_LL_00000000_Sweden.html',
   STNLIST=2013,2019,2020,2024,2028,2029,2031,2036,2038,2044,
                2045,2049,2054,2055,2064,2071,2072,2080,2081,2091,
                2095,2096,2102,2103,2104,2110,2119,2120,2121,2123,
                2124,2126,2128,2130,2135,2141,2146,2147,2149,2151,
                2154,2159,2161,2170,2171,2173,2174,2176,2181,2183,
                2184,2185,2186,2188,2191,2196,2197,2199,2206,2207,
                2209,2210,2216,2217,2219,2221,2222,2226,2229,2230,
                2231,2233,2236,2242,2243,2244,2245,2247,2254,2256,
                2260,2261,2263,2265,2267,2269,2271,2282,2283,2284,
                2286,2287,2288,2292,2293,2297,2302,2303,2307,2308,
                2311,2317,2319,2321,2324,2325,2327,2329,2331,2337,
                2338,2343,2347,2349,2354,2355,2365,2366,2368,2378,
                2382,2403,2407,2408,2410,2411,2413,2417,2418,2419,
                2423,2426,2429,2431,2432,2435,2440,2441,2443,2449,
                2450,2452,2453,2456,2458,2460,2462,2464,2468,2469,
                2472,2476,2481,2482,2483,2484,2485,2486,2487,2488,
                2489,2490,2492,2493,2496,2498,2499,2500,2501,2503,
                2505,2507,2512,2513,2515,2516,2517,2518,2520,2521,
                2526,2527,2531,2536,2539,2540,2542,2544,2545,2546,
                2548,2549,2550,2552,2553,2554,2556,2557,2558,2559,
                2561,2562,2563,2565,2566,2567,2573,2574,2575,2583,
                2584,2587,2589,2590,2591,2595,2598,2602,2603,2605,
                2607,2609,2611,2615,2616,2618,2620,2622,2623,2625,
                2628,2629,2632,2633,2635,2636,2643,2644,2648,2652,
                2661,2664,2665,2667,2670,2679,2680,19753*0,
   STNLIST_PLOT=-1,
   TAG='Sweden',
   USE_FCLEN=00,01,02,03,04,05,06,07,08,09,10,11,12,13,14,15,16,17,18,19,20,21,22,23,24,25,26,27,28,29,30,31,32,33,34,35,36,
 /
&NAMVER
   CBOX%ACTIVE=F,
   INI_HOURS=24*-1,
   LDIFF=T,
   LFCVER=T,
   LPLOT_FREQ=F,
   LPLOT_SCAT=F,
   LPLOT_SEASONAL=F,
   LPLOT_STAT=F,
   LPLOT_VERT=F,
   LPOLY=F,
   LPREP_XML=F,
   LSIGN_TEST=F,
   LSIGN_TEST_JOINT=F,
   LSTAT_GEN=F,
   LTIMESERIE_STAT=T,
   LVERIFY=T,
   PLOT_BIAS_MAP=F,
   PLOT_MABE_MAP=F,
   PLOT_RMSE_MAP=F,
   PLOT_STDV_MAP=F,
   SHOW_BIAS=T,
   SHOW_MABE=F,
   SHOW_OBS=F,
   SHOW_RMSE=F,
   SHOW_STDV=T,
   STNLIST=02790, 02823, 02862, 02863, 02873, 02889, 02907, 02910,
    02911, 02920, 02958, 02964, 02965, 02967, 02972, 02979,
    02980, 02984, 02987, 02988, 02991, 02992, 02993, 02721,
    02737, 02740, 02751, 02757, 02759, 02769, 02777, 02789,
    02795, 02801, 02808, 02814, 02816, 02824, 02834, 02844,
    02869, 02872, 02874, 02875, 02915, 02929, 02942, 02945,
    02948, 02966, 02978, 89014, 02701, 02705, 02714, 02715,
    02716, 02717, 02719, 02722, 02723, 02726, 02739, 02745,
    02799, 02800, 02803, 02804, 02813, 02815, 02817, 02818,
    02820, 02821, 02825, 02827, 02835, 02847, 02868, 02876,
    02710, 02711, 02725, 02727, 02728, 02729, 02730, 02731,
    02732, 02733, 02734, 02735, 02736, 02738, 02752, 02753,
    02761, 02762, 02763, 02765, 02772, 02778, 02780, 02781,
    02783, 02787, 02788, 02791, 02793, 02796, 02833, 02943,
    02703, 02743, 02746, 02747, 02754, 02758, 02773, 02794,
    02828, 02831, 02950, 02996, 02704, 02706, 02750, 02756,
    02767, 02768, 02770, 02771, 02797, 02798, 02811, 02812,
    02819, 02829, 02830, 02832, 02755, 02805, 02807, 02836,
    02845, 02849, 02866, 02897, 02913, 02917, 02924, 02935,
    02939, 02944, 02947, 02952, 02963, 02971, 02974, 02976,
    02981, 02982, 02741,19837*0,
   STNLIST_BL=02917,02915,02939,02705,02723,02868,02701,02821,02820,02817,
   STNLIST_PLOT=-1,
   TAG='Finland',
   TIMESERIE_WIND(1)=6,
   TIMESERIE_WIND(2)=6,
   TIMESERIE_WIND(3)=6,
   TIMESERIE_WIND(4)=6,
   TIMESERIE_WIND(5)=6,
   TIMESERIE_WIND(6)=6,
   TIMESERIE_WIND(7)=6,
   TIMESERIE_WIND(8)=6,
   USE_FCLEN=03,
 /
&NAMVER
   CBOX%ACTIVE=F,
   INI_HOURS=24*-1,
   LDIFF=T,
   LFCVER=F,
   LPLOT_FREQ=F,
   LPLOT_SCAT=F,
   LPLOT_SEASONAL=F,
   LPLOT_STAT=T,
   LPLOT_VERT=F,
   LPOLY=F,
   LPREP_XML=F,
   LSIGN_TEST=F,
   LSIGN_TEST_JOINT=F,
   LSTAT_GEN=T,
   LTIMESERIE_STAT=F,
   LVERIFY=T,
   NTIMVER=24,
   PLOT_BIAS_MAP=F,
   PLOT_MABE_MAP=F,
   PLOT_RMSE_MAP=F,
   PLOT_STDV_MAP=F,
   SHOW_OBS=T,
   SHOW_VAR=F,
   STATNAME='TABLE_HH_00000000_Finland.html',
   STNLIST=02790, 02823, 02862, 02863, 02873, 02889, 02907, 02910,
    02911, 02920, 02958, 02964, 02965, 02967, 02972, 02979,
    02980, 02984, 02987, 02988, 02991, 02992, 02993, 02721,
    02737, 02740, 02751, 02757, 02759, 02769, 02777, 02789,
    02795, 02801, 02808, 02814, 02816, 02824, 02834, 02844,
    02869, 02872, 02874, 02875, 02915, 02929, 02942, 02945,
    02948, 02966, 02978, 89014, 02701, 02705, 02714, 02715,
    02716, 02717, 02719, 02722, 02723, 02726, 02739, 02745,
    02799, 02800, 02803, 02804, 02813, 02815, 02817, 02818,
    02820, 02821, 02825, 02827, 02835, 02847, 02868, 02876,
    02710, 02711, 02725, 02727, 02728, 02729, 02730, 02731,
    02732, 02733, 02734, 02735, 02736, 02738, 02752, 02753,
    02761, 02762, 02763, 02765, 02772, 02778, 02780, 02781,
    02783, 02787, 02788, 02791, 02793, 02796, 02833, 02943,
    02703, 02743, 02746, 02747, 02754, 02758, 02773, 02794,
    02828, 02831, 02950, 02996, 02704, 02706, 02750, 02756,
    02767, 02768, 02770, 02771, 02797, 02798, 02811, 02812,
    02819, 02829, 02830, 02832, 02755, 02805, 02807, 02836,
    02845, 02849, 02866, 02897, 02913, 02917, 02924, 02935,
    02939, 02944, 02947, 02952, 02963, 02971, 02974, 02976,
    02981, 02982, 02741,19837*0,
   STNLIST_BL=02917,02915,02939,02705,02723,02868,02701,02821,02820,02817,
   STNLIST_PLOT=-1,
   TAG='Finland',
   USE_FCLEN=00,01,02,03,04,05,06,07,08,09,10,11,12,13,14,15,16,17,18,19,20,21,22,23,24,25,26,27,28,29,30,31,32,33,34,35,36,
 /
&NAMVER
   CBOX%ACTIVE=F,
   INI_HOURS=24*-1,
   LDIFF=T,
   LFCVER=F,
   LPLOT_FREQ=F,
   LPLOT_SCAT=F,
   LPLOT_SEASONAL=F,
   LPLOT_STAT=F,
   LPLOT_VERT=F,
   LPOLY=F,
   LPREP_XML=F,
   LSIGN_TEST=F,
   LSIGN_TEST_JOINT=F,
   LSTAT_GEN=T,
   LTIMESERIE_STAT=F,
   LVERIFY=T,
   MAP_BIAS_INTERVAL(1:7,1)=-1.5,-1.0,-0.5,0.,0.5,1.0,1.5,
   MAP_BIAS_INTERVAL(1:7,2)=-10.,-5.,-2.5,0.,2.5,5.,10.,
   MAP_BIAS_INTERVAL(1:7,3)=-10.,-5.,-2.5,0.,2.5,5.,10.,
   MAP_BIAS_INTERVAL(1:7,4)=-10.,-5.,-2.5,0.,2.5,5.,10.,
   MAP_BIAS_INTERVAL(1:7,5)=-10.,-5.,-2.5,0.,2.5,5.,10.,
   MAP_BIAS_INTERVAL(1:7,6)=-90.,-60.,-30.,0.,30.,60.,90.,
   MAP_BIAS_INTERVAL(1:7,7)=-8.,-2.,-0.5,0.,0.5,2.,8.,
   MAP_BIAS_INTERVAL(1:7,8)=-8.,-2.,-0.5,0.,0.5,2.,8.,
   NTIMVER=24,
   PLOT_BIAS_MAP=T,
   PLOT_MABE_MAP=F,
   PLOT_RMSE_MAP=T,
   PLOT_STDV_MAP=F,
   SHOW_OBS=F,
   SHOW_TIMES=00,06,12,18,
   STNLIST=02790, 02823, 02862, 02863, 02873, 02889, 02907, 02910,
    02911, 02920, 02958, 02964, 02965, 02967, 02972, 02979,
    02980, 02984, 02987, 02988, 02991, 02992, 02993, 02721,
    02737, 02740, 02751, 02757, 02759, 02769, 02777, 02789,
    02795, 02801, 02808, 02814, 02816, 02824, 02834, 02844,
    02869, 02872, 02874, 02875, 02915, 02929, 02942, 02945,
    02948, 02966, 02978, 89014, 02701, 02705, 02714, 02715,
    02716, 02717, 02719, 02722, 02723, 02726, 02739, 02745,
    02799, 02800, 02803, 02804, 02813, 02815, 02817, 02818,
    02820, 02821, 02825, 02827, 02835, 02847, 02868, 02876,
    02710, 02711, 02725, 02727, 02728, 02729, 02730, 02731,
    02732, 02733, 02734, 02735, 02736, 02738, 02752, 02753,
    02761, 02762, 02763, 02765, 02772, 02778, 02780, 02781,
    02783, 02787, 02788, 02791, 02793, 02796, 02833, 02943,
    02703, 02743, 02746, 02747, 02754, 02758, 02773, 02794,
    02828, 02831, 02950, 02996, 02704, 02706, 02750, 02756,
    02767, 02768, 02770, 02771, 02797, 02798, 02811, 02812,